<routes>
  <vType id="car" accel="2.6" decel="4.5" length="4.5" minGap="2.5" maxSpeed="33.33"/>
  <route id="r0" edges="e0"/>
  <!-- leader leaves at 0s, follower departs at 2s (adjust depart to change gap) -->
  <vehicle id="leader" type="car" route="r0" depart="0" departSpeed="max"/>
  <vehicle id="follower" type="car" route="r0" depart="2" departSpeed="max"/>
</routes>