<?xml version="1.0" encoding="UTF-8"?>
<configuration>
    <input>
        <net-file value="simple.net.xml"/>
        <route-files value="simple.rou.xml"/>
    </input>

    <output>
        <fcd-output value="fcd.xml"/>
    </output>

    <time>
        <begin value="0"/>
        <end value="20"/>
    </time>
</configuration>