<?xml version="1.0" encoding="UTF-8"?>

<!-- generated on 2025-11-09T00:44:42.844519-05:00 by Eclipse SUMO netconvert v1_24_0+1816-7f71e6754ac
<netconvertConfiguration xmlns:xsi="http://www.w3.org/2001/XMLSchema-instance" xsi:noNamespaceSchemaLocation="http://sumo.dlr.de/xsd/netconvertConfiguration.xsd">

    <input>
        <node-files value="nodes.nod.xml"/>
        <edge-files value="edges.edg.xml"/>
    </input>

    <output>
        <output-file value="road.net.xml"/>
    </output>

    <report>
        <verbose value="true"/>
        <xml-validation value="auto"/>
    </report>

</netconvertConfiguration>
-->

<net version="1.20" junctionCornerDetail="5" limitTurnSpeed="5.50" xmlns:xsi="http://www.w3.org/2001/XMLSchema-instance" xsi:noNamespaceSchemaLocation="http://sumo.dlr.de/xsd/net_file.xsd">

    <location netOffset="0.00,0.00" convBoundary="0.00,0.00,100.00,0.00" origBoundary="0.00,0.00,100.00,0.00" projParameter="!"/>

    <edge id="e0" from="n0" to="n1" priority="1">
        <lane id="e0_0" index="0" speed="13.89" length="100.00" shape="0.00,-1.60 100.00,-1.60"/>
    </edge>

    <junction id="n0" type="dead_end" x="0.00" y="0.00" incLanes="" intLanes="" shape="0.00,0.00 0.00,-3.20"/>
    <junction id="n1" type="dead_end" x="100.00" y="0.00" incLanes="e0_0" intLanes="" shape="100.00,-3.20 100.00,0.00"/>

</net>
