<?xml version="1.0" encoding="UTF-8"?>
<routes xmlns:xsi="http://www.w3.org/2001/XMLSchema-instance"
        xsi:noNamespaceSchemaLocation="http://sumo.dlr.de/xsd/routes_file.xsd">

  <vType id="car" accel="1.2" decel="4.5" sigma="0.5" length="5.0" minGap="2.5" maxSpeed="13.89"/>

  <route id="r0" edges="e0"/>

  <!-- 领车 lead：t=1s 出发 -->
  <vehicle id="lead" type="car" route="r0" depart="1.0"/>

  <!-- 自车 ego：t=3s 出发（后发追前） -->
  <vehicle id="ego"  type="car" route="r0" depart="3.0"/>
</routes>
