<?xml version="1.0" encoding="UTF-8"?>
<routes xmlns:xsi="http://www.w3.org/2001/XMLSchema-instance"
        xsi:noNamespaceSchemaLocation="http://sumo.dlr.de/xsd/routes_file.xsd">

  <vType id="car" accel="1.2" decel="4.5" sigma="0.5" length="5.0" minGap="2.5" maxSpeed="13.89"/>

  <route id="r0" edges="e0"/>

  <!-- lead：t=1s go -->
  <vehicle id="lead" type="car" route="r0" depart="1.0" departPos="5.0" departSpeed="10.0"/>

  <!-- ego：t=3s follow  -->
  <vehicle id="ego"  type="car" route="r0" depart="3.0" departPos="0.0" departSpeed="0.0"/>
</routes>
